 .wgn file Subbasin:1 userwgn Fri Mar 26 10:58:10 2004 AVSWAT2000 - SWAT interface MDL
  LATITUDE =  54.47 LONGITUDE =   9.23
  ELEV [m] =  41.00
  RAIN_YRS =  10.00
  2.78  3.27  6.01 10.58 15.59 18.89 20.43 20.61 17.01 12.53  7.21  3.87
 -1.44 -1.32  0.49  2.90  6.93 10.11 12.05 11.98  9.48  6.42  2.54 -0.41
  3.79  3.74  3.77  4.05  3.78  3.86  3.62  3.34  2.73  3.03  3.16  3.64
  4.73  4.40  3.19  3.04  3.04  2.82  2.69  2.94  2.91  3.55  3.61  4.42
 75.14 52.99 57.57 49.46 53.04 70.85 85.91 85.81 88.12 91.20 90.63 80.88
  4.23  3.42  3.51  3.21  3.64  5.12  5.57  5.76  6.01  5.30  4.92  4.54
  2.85  2.87  3.27  3.08  3.33  3.83  3.82  4.19  3.49  3.27  2.43  2.87
  0.14  0.16  0.15  0.15  0.15  0.16  0.15  0.13  0.15  0.16  0.14  0.15
  0.54  0.40  0.39  0.35  0.28  0.27  0.37  0.38  0.40  0.47  0.58  0.52
 20.52 16.70 16.76 14.93 13.37 13.50 15.84 15.69 16.60 19.49 21.42 20.80
 10.00 12.00 15.00 20.00 25.00 29.00 30.00 30.00 25.00 20.00 15.00 10.00
  1.84  3.99  7.86 12.52 16.51 19.15 16.98 15.29  9.82  5.24  2.36  1.41
 -0.87 -1.05  0.44  2.86  6.64 10.01 12.03 12.18 10.11  7.12  3.15  0.34
  3.32  3.25  3.37  2.75  2.65  2.47  2.40  2.17  2.33  2.73  2.97  3.07
                              
